O8Y
  CCTOOLS-0919241043

 19 18  0  0  0  0  0  0  0  0999 V2000
   -0.0850    0.4060    0.1170 C   0  0  0  0  0
   -1.2680   -0.5560    0.2510 C   0  0  0  0  0
   -2.5510    0.2320    0.3100 C   0  0  0  0  0
    1.2180   -0.3940    0.0570 C   0  0  0  0  0
    3.7040   -0.2330   -0.1370 C   0  0  0  0  0
    2.4010    0.5670   -0.0770 C   0  0  0  0  0
   -3.4410   -0.0030   -0.4730 O   0  0  0  0  0
   -0.1940    0.9910   -0.7960 H   0  0  0  0  0
   -0.0620    1.0750    0.9770 H   0  0  0  0  0
   -1.2910   -1.2250   -0.6090 H   0  0  0  0  0
   -1.1590   -1.1410    1.1640 H   0  0  0  0  0
   -2.6760    1.0070    1.0510 H   0  0  0  0  0
    1.3270   -0.9790    0.9700 H   0  0  0  0  0
    1.1940   -1.0630   -0.8030 H   0  0  0  0  0
    3.8130   -0.8180    0.7760 H   0  0  0  0  0
    3.6800   -0.9020   -0.9970 H   0  0  0  0  0
    4.5460    0.4520   -0.2320 H   0  0  0  0  0
    2.2910    1.1530   -0.9900 H   0  0  0  0  0
    2.4240    1.2370    0.7830 H   0  0  0  0  0
  1  8  1  0  0  0
  1  9  1  0  0  0
  2  3  1  0  0  0
  2  1  1  0  0  0
  2 10  1  0  0  0
  2 11  1  0  0  0
  3 12  1  0  0  0
  4  1  1  0  0  0
  4 13  1  0  0  0
  4 14  1  0  0  0
  5 15  1  0  0  0
  5 16  1  0  0  0
  5 17  1  0  0  0
  6  5  1  0  0  0
  6  4  1  0  0  0
  6 18  1  0  0  0
  6 19  1  0  0  0
  7  3  2  0  0  0
M  END
$$$$
