OYA
  CCTOOLS-1004241129

 25 24  0  0  0  0  0  0  0  0999 V2000
    4.9580   -0.2630   -0.1320 C   0  0  0  0  0
    3.6750    0.5670   -0.0640 C   0  0  0  0  0
    2.4650   -0.3680   -0.0180 C   0  0  0  0  0
    1.1810    0.4620    0.0510 C   0  0  0  0  0
   -0.0290   -0.4730    0.0970 C   0  0  0  0  0
   -1.3120    0.3570    0.1660 C   0  0  0  0  0
   -2.5230   -0.5780    0.2120 C   0  0  0  0  0
   -3.7870    0.2400    0.2800 C   0  0  0  0  0
   -4.6580    0.0730   -0.5390 O   0  0  0  0  0
    5.8200    0.4030   -0.1650 H   0  0  0  0  0
    5.0260   -0.9020    0.7490 H   0  0  0  0  0
    4.9430   -0.8820   -1.0290 H   0  0  0  0  0
    3.6900    1.1860    0.8340 H   0  0  0  0  0
    3.6080    1.2050   -0.9450 H   0  0  0  0  0
    2.4500   -0.9870   -0.9150 H   0  0  0  0  0
    2.5320   -1.0070    0.8630 H   0  0  0  0  0
    1.1970    1.0810    0.9480 H   0  0  0  0  0
    1.1140    1.1000   -0.8300 H   0  0  0  0  0
   -0.0440   -1.0920   -0.8000 H   0  0  0  0  0
    0.0380   -1.1120    0.9780 H   0  0  0  0  0
   -1.2970    0.9760    1.0630 H   0  0  0  0  0
   -1.3800    0.9960   -0.7150 H   0  0  0  0  0
   -2.5380   -1.1970   -0.6850 H   0  0  0  0  0
   -2.4550   -1.2160    1.0930 H   0  0  0  0  0
   -3.9130    0.9750    1.0610 H   0  0  0  0  0
  1  2  1  0  0  0
  1 10  1  0  0  0
  1 11  1  0  0  0
  1 12  1  0  0  0
  2  3  1  0  0  0
  2 13  1  0  0  0
  2 14  1  0  0  0
  3  4  1  0  0  0
  3 15  1  0  0  0
  3 16  1  0  0  0
  4  5  1  0  0  0
  4 17  1  0  0  0
  4 18  1  0  0  0
  5  6  1  0  0  0
  5 19  1  0  0  0
  5 20  1  0  0  0
  6  7  1  0  0  0
  6 21  1  0  0  0
  6 22  1  0  0  0
  7  8  1  0  0  0
  7 23  1  0  0  0
  7 24  1  0  0  0
  8  9  2  0  0  0
  8 25  1  0  0  0
M  END
$$$$
